Circuit: * U:\INSA Toulouse\Capteur\Digital-Analog\montage_test_capteur.asc

Direct Newton iteration for .op point succeeded.

Date: Thu Jan 30 10:15:10 2025
Total elapsed time: 0.464 seconds.

tnom = 27
temp = 27
method = modified trap
totiter = 8354
traniter = 8332
tranpoints = 4167
accept = 2691
rejected = 1476
matrix size = 16
fillins = 5
solver = Normal
Avg thread counts: 1.2/1.3/1.3/1.2
Matrix Compiler1: off  [0.2]/0.3/0.5
Matrix Compiler2: off  [0.1]/1.3/0.4

