LTspice 24.1.8 for Windows
Circuit: C:\Users\ADMIN\Downloads\Projet\Projet_capteur\LTSpice\montage_test_capteur.net
Start Time: Thu May 15 23:23:28 2025
solver = Normal
Maximum thread count: 8
tnom = 27
temp = 27
method = trap
Direct Newton iteration for .op point succeeded.
Total elapsed time: 0.054 seconds.

Files loaded:
C:\Users\ADMIN\Downloads\Projet\Projet_capteur\LTSpice\montage_test_capteur.net
C:\Users\ADMIN\AppData\Local\LTspice\lib\sub\LTC.lib

